RAN
 OpenBabel12262511233D

 43 43  0  0  0  0  0  0  0  0999 V2000
    2.6091    7.7554    4.5887 C   0  0  0  0  0  0  0  0  0  0  0  0
    2.1409    6.5877    3.8697 N   0  0  0  0  0  0  0  0  0  0  0  0
    2.9833    5.4876    3.4677 C   0  0  0  0  0  0  0  0  0  0  0  0
    2.3924    4.3572    2.7976 N   0  0  0  0  0  0  0  0  0  0  0  0
    0.9751    4.0373    2.7852 C   0  0  0  0  0  0  0  0  0  0  0  0
    0.4336    4.1207    1.3603 C   0  0  0  0  0  0  0  0  0  0  0  0
   -1.3220    3.6189    1.3088 S   0  0  0  0  0  0  0  0  0  0  0  0
   -2.0068    5.2979    1.5059 C   0  0  0  0  0  0  0  0  0  0  0  0
   -3.4740    5.1889    1.7600 C   0  0  0  0  0  0  0  0  0  0  0  0
   -4.4783    5.7144    0.9698 C   0  0  0  0  0  0  0  0  0  0  0  0
   -5.6604    5.3603    1.5810 C   0  0  0  0  0  0  0  0  0  0  0  0
   -5.3019    4.6432    2.7059 C   0  0  0  0  0  0  0  0  0  0  0  0
   -6.2445    4.0336    3.6988 C   0  0  0  0  0  0  0  0  0  0  0  0
   -7.1314    3.0437    3.0538 N   0  0  0  0  0  0  0  0  0  0  0  0
   -6.3724    1.8694    2.5854 C   0  0  0  0  0  0  0  0  0  0  0  0
   -8.1726    2.6123    3.9994 C   0  0  0  0  0  0  0  0  0  0  0  0
   -3.9937    4.5582    2.7891 O   0  0  0  0  0  0  0  0  0  0  0  0
    4.3327    5.5618    3.6987 C   0  0  0  0  0  0  0  0  0  0  0  0
    5.3218    4.5671    3.4072 N   0  3  0  0  0  0  0  0  0  0  0  0
    5.0140    3.3485    3.0255 O   0  5  0  0  0  0  0  0  0  0  0  0
    6.4661    4.8178    3.6359 O   0  0  0  0  0  0  0  0  0  0  0  0
    1.7632    8.4518    4.7725 H   0  0  0  0  0  0  0  0  0  0  0  0
    3.3733    8.2944    3.9900 H   0  0  0  0  0  0  0  0  0  0  0  0
    3.0329    7.4524    5.5695 H   0  0  0  0  0  0  0  0  0  0  0  0
    1.1441    6.5934    3.6245 H   0  0  0  0  0  0  0  0  0  0  0  0
    2.9733    3.7066    2.2615 H   0  0  0  0  0  0  0  0  0  0  0  0
    0.3798    4.6869    3.4488 H   0  0  0  0  0  0  0  0  0  0  0  0
    0.8467    3.0028    3.1707 H   0  0  0  0  0  0  0  0  0  0  0  0
    1.0008    3.4398    0.6909 H   0  0  0  0  0  0  0  0  0  0  0  0
    0.5629    5.1452    0.9497 H   0  0  0  0  0  0  0  0  0  0  0  0
   -1.8271    5.8825    0.5784 H   0  0  0  0  0  0  0  0  0  0  0  0
   -1.5481    5.8047    2.3805 H   0  0  0  0  0  0  0  0  0  0  0  0
   -4.3639    6.2830    0.0564 H   0  0  0  0  0  0  0  0  0  0  0  0
   -6.6623    5.5943    1.2458 H   0  0  0  0  0  0  0  0  0  0  0  0
   -6.8477    4.8627    4.1305 H   0  0  0  0  0  0  0  0  0  0  0  0
   -5.6654    3.5599    4.5237 H   0  0  0  0  0  0  0  0  0  0  0  0
   -5.6252    2.1669    1.8197 H   0  0  0  0  0  0  0  0  0  0  0  0
   -7.0555    1.1394    2.1002 H   0  0  0  0  0  0  0  0  0  0  0  0
   -5.8462    1.3669    3.4276 H   0  0  0  0  0  0  0  0  0  0  0  0
   -8.7843    3.4828    4.3202 H   0  0  0  0  0  0  0  0  0  0  0  0
   -7.7261    2.1323    4.8993 H   0  0  0  0  0  0  0  0  0  0  0  0
   -8.8619    1.8910    3.5095 H   0  0  0  0  0  0  0  0  0  0  0  0
    4.7227    6.4576    4.1672 H   0  0  0  0  0  0  0  0  0  0  0  0
  1  2  1  0  0  0  0
  1 22  1  0  0  0  0
  1 23  1  0  0  0  0
  1 24  1  0  0  0  0
  2  3  1  0  0  0  0
  2 25  1  0  0  0  0
  3  4  1  0  0  0  0
  3 18  2  3  0  0  0
  4  5  1  0  0  0  0
  4 26  1  0  0  0  0
  5  6  1  0  0  0  0
  5 27  1  0  0  0  0
  5 28  1  0  0  0  0
  6  7  1  0  0  0  0
  6 29  1  0  0  0  0
  6 30  1  0  0  0  0
  7  8  1  0  0  0  0
  8  9  1  0  0  0  0
  8 31  1  0  0  0  0
  8 32  1  0  0  0  0
  9 10  2  0  0  0  0
  9 17  1  0  0  0  0
 10 11  1  0  0  0  0
 10 33  1  0  0  0  0
 11 12  2  0  0  0  0
 11 34  1  0  0  0  0
 12 13  1  0  0  0  0
 12 17  1  0  0  0  0
 13 14  1  0  0  0  0
 13 35  1  0  0  0  0
 13 36  1  0  0  0  0
 14 15  1  0  0  0  0
 14 16  1  0  0  0  0
 15 37  1  0  0  0  0
 15 38  1  0  0  0  0
 15 39  1  0  0  0  0
 16 40  1  0  0  0  0
 16 41  1  0  0  0  0
 16 42  1  0  0  0  0
 18 19  1  0  0  0  0
 18 43  1  0  0  0  0
 19 20  1  0  0  0  0
 19 21  2  0  0  0  0
M  CHG  2  19   1  20  -1
M  END
>  <Energy>
351.258

$$$$
