simvastatin
 OpenBabel12252517303D

 38 38  0  0  1  0  0  0  0  0999 V2000
    3.0003   -1.5437   -0.5576 C   0  0  0  0  0  0  0  0  0  0  0  0
    2.7011   -0.0815   -0.1572 C   0  0  0  0  0  0  0  0  0  0  0  0
    3.2858    0.8795   -1.2156 C   0  0  0  0  0  0  0  0  0  0  0  0
    1.1714    0.1161   -0.1336 C   0  0  0  0  0  0  0  0  0  0  0  0
    3.2198    0.2339    1.1989 N   0  0  0  0  0  0  0  0  0  0  0  0
    4.6697    0.0608    1.4012 C   0  0  0  0  0  0  0  0  0  0  0  0
    5.0794    0.5809    2.7952 C   0  0  3  0  0  0  0  0  0  0  0  0
    4.3949   -0.0910    3.8249 O   0  0  0  0  0  0  0  0  0  0  0  0
    6.5784    0.4859    3.0100 C   0  0  0  0  0  0  0  0  0  0  0  0
    7.2314   -0.7599    3.0136 C   0  0  0  0  0  0  0  0  0  0  0  0
    8.6207   -0.8485    3.2107 C   0  0  0  0  0  0  0  0  0  0  0  0
    9.2779   -2.2082    3.2036 C   0  0  0  0  0  0  0  0  0  0  0  0
   10.2232   -2.2932    2.1719 O   0  0  0  0  0  0  0  0  0  0  0  0
    9.3668    0.3377    3.4122 C   0  0  0  0  0  0  0  0  0  0  0  0
   10.7025    0.3228    3.6164 O   0  0  0  0  0  0  0  0  0  0  0  0
    8.7136    1.5742    3.4076 C   0  0  0  0  0  0  0  0  0  0  0  0
    7.3346    1.6507    3.2088 C   0  0  0  0  0  0  0  0  0  0  0  0
    2.5479   -1.7765   -1.5460 H   0  0  0  0  0  0  0  0  0  0  0  0
    2.5813   -2.2468    0.1937 H   0  0  0  0  0  0  0  0  0  0  0  0
    4.0911   -1.7252   -0.6464 H   0  0  0  0  0  0  0  0  0  0  0  0
    2.8270    0.6873   -2.2097 H   0  0  0  0  0  0  0  0  0  0  0  0
    4.3792    0.7483   -1.3392 H   0  0  0  0  0  0  0  0  0  0  0  0
    3.0822    1.9351   -0.9342 H   0  0  0  0  0  0  0  0  0  0  0  0
    0.7270   -0.0953   -1.1306 H   0  0  0  0  0  0  0  0  0  0  0  0
    0.9199    1.1612    0.1486 H   0  0  0  0  0  0  0  0  0  0  0  0
    0.6987   -0.5656    0.6063 H   0  0  0  0  0  0  0  0  0  0  0  0
    2.7208   -0.3619    1.9017 H   0  0  0  0  0  0  0  0  0  0  0  0
    5.2396    0.6495    0.6553 H   0  0  0  0  0  0  0  0  0  0  0  0
    4.9480   -1.0099    1.3077 H   0  0  0  0  0  0  0  0  0  0  0  0
    4.7706    1.6489    2.8384 H   0  0  0  0  0  0  0  0  0  0  0  0
    4.5213   -1.0666    3.6942 H   0  0  0  0  0  0  0  0  0  0  0  0
    6.6574   -1.6650    2.8603 H   0  0  0  0  0  0  0  0  0  0  0  0
    8.5349   -3.0309    3.0922 H   0  0  0  0  0  0  0  0  0  0  0  0
    9.7853   -2.3774    4.1765 H   0  0  0  0  0  0  0  0  0  0  0  0
    9.7110   -2.3880    1.3265 H   0  0  0  0  0  0  0  0  0  0  0  0
   11.2323   -0.4842    3.6521 H   0  0  0  0  0  0  0  0  0  0  0  0
    9.2798    2.4844    3.5613 H   0  0  0  0  0  0  0  0  0  0  0  0
    6.8584    2.6233    3.2110 H   0  0  0  0  0  0  0  0  0  0  0  0
  1  2  1  0  0  0  0
  1 18  1  0  0  0  0
  1 19  1  0  0  0  0
  1 20  1  0  0  0  0
  2  3  1  0  0  0  0
  2  4  1  0  0  0  0
  2  5  1  0  0  0  0
  3 21  1  0  0  0  0
  3 22  1  0  0  0  0
  3 23  1  0  0  0  0
  4 24  1  0  0  0  0
  4 25  1  0  0  0  0
  4 26  1  0  0  0  0
  5  6  1  0  0  0  0
  5 27  1  0  0  0  0
  6  7  1  0  0  0  0
  6 28  1  0  0  0  0
  6 29  1  0  0  0  0
  7  8  1  0  0  0  0
  7  9  1  0  0  0  0
  7 30  1  0  0  0  0
  8 31  1  0  0  0  0
  9 10  2  0  0  0  0
  9 17  1  0  0  0  0
 10 11  1  0  0  0  0
 10 32  1  0  0  0  0
 11 12  1  0  0  0  0
 11 14  2  0  0  0  0
 12 13  1  0  0  0  0
 12 33  1  0  0  0  0
 12 34  1  0  0  0  0
 13 35  1  0  0  0  0
 14 15  1  0  0  0  0
 14 16  1  0  0  0  0
 15 36  1  0  0  0  0
 16 17  2  0  0  0  0
 16 37  1  0  0  0  0
 17 38  1  0  0  0  0
M  END
>  <Energy>
182.684

$$$$
